bench/ieee39.seq
0,     33           / PSS(R)E-34.3    FRI, MAR 25 2022  16:55
    30,'1 ', 0.00000E+00, 2.00000E-03, 2.00000E-03, 2.00000E-03, 0.00000E+00, 2.00000E-03, 0.00000E+00, 2.00000E-03,1, 0.00000E+00, 0.00000E+00,    0
    31,'1 ', 0.00000E+00, 2.00000E-03, 2.00000E-03, 2.00000E-03, 0.00000E+00, 2.00000E-03, 0.00000E+00, 2.00000E-03,1, 0.00000E+00, 0.00000E+00,    0
    32,'1 ', 0.00000E+00, 2.00000E-03, 2.00000E-03, 2.00000E-03, 0.00000E+00, 2.00000E-03, 0.00000E+00, 2.00000E-03,1, 0.00000E+00, 0.00000E+00,    0
    33,'1 ', 0.00000E+00, 2.00000E-03, 2.00000E-03, 2.00000E-03, 0.00000E+00, 2.00000E-03, 0.00000E+00, 2.00000E-03,1, 0.00000E+00, 0.00000E+00,    0
    34,'1 ', 0.00000E+00, 2.00000E-03, 2.00000E-03, 2.00000E-03, 0.00000E+00, 2.00000E-03, 0.00000E+00, 2.00000E-03,1, 0.00000E+00, 0.00000E+00,    0
    35,'1 ', 0.00000E+00, 2.00000E-03, 2.00000E-03, 2.00000E-03, 0.00000E+00, 2.00000E-03, 0.00000E+00, 2.00000E-03,1, 0.00000E+00, 0.00000E+00,    0
    36,'1 ', 0.00000E+00, 2.00000E-03, 2.00000E-03, 2.00000E-03, 0.00000E+00, 2.00000E-03, 0.00000E+00, 2.00000E-03,1, 0.00000E+00, 0.00000E+00,    1
    37,'1 ', 0.00000E+00, 2.00000E-03, 2.00000E-03, 2.00000E-03, 0.00000E+00, 2.00000E-03, 0.00000E+00, 2.00000E-03,1, 0.00000E+00, 0.00000E+00,    1
    38,'1 ', 0.00000E+00, 2.00000E-03, 2.00000E-03, 2.00000E-03, 0.00000E+00, 2.00000E-03, 0.00000E+00, 2.00000E-03,1, 0.00000E+00, 0.00000E+00,    0
    39,'1 ', 0.00000E+00, 2.00000E-04, 2.00000E-04, 2.00000E-04, 0.00000E+00, 2.00000E-04, 0.00000E+00, 2.00000E-04,1, 0.00000E+00, 0.00000E+00,    0
0  / END OF GENERATOR DATA, BEGIN LOAD DATA
     3,'1 ', 100, 100,1, 100, 100
     4,'1 ', 100, 100,1, 100, 100
     7,'1 ', 100, 100,1, 100, 100
     8,'1 ', 100, 100,1, 100, 100
    12,'1 ', 100, 100,1, 100, 100
    15,'1 ', 100, 100,1, 100, 100
    16,'1 ', 100, 100,1, 100, 100
    18,'1 ', 100, 100,1, 100, 100
    20,'1 ', 100, 100,1, 100, 100
    21,'1 ', 100, 100,1, 100, 100
    23,'1 ', 100, 100,1, 100, 100
    24,'1 ', 100, 100,1, 100, 100
    25,'1 ', 100, 100,1, 100, 100
    26,'1 ', 100, 100,1, 100, 100
    27,'1 ', 100, 100,1, 100, 100
    28,'1 ', 100, 100,1, 100, 100
    29,'1 ', 100, 100,1, 100, 100
    31,'1 ', 100, 100,1, 100, 100
    39,'1 ', 100, 100,1, 100, 100
0  / END OF LOAD DATA, BEGIN ZERO SEQ. NON-TRANSFORMER BRANCH DATA
     1,     2,'1 ', 3.50000E-3, 4.11000E-2,    0.69870, 0.00000E+0, 0.00000E+0, 0.00000E+0, 0.00000E+0
     1,    39,'1 ', 1.00000E-3, 2.50000E-2,    0.75000, 0.00000E+0, 0.00000E+0, 0.00000E+0, 0.00000E+0
     2,     3,'1 ', 1.30000E-3, 1.51000E-2,    0.25720, 0.00000E+0, 0.00000E+0, 0.00000E+0, 0.00000E+0
     2,    25,'1 ', 7.00000E-3, 8.60000E-3,    0.14600, 0.00000E+0, 0.00000E+0, 0.00000E+0, 0.00000E+0
     3,     4,'1 ', 1.30000E-3, 2.13000E-2,    0.22140, 0.00000E+0, 0.00000E+0, 0.00000E+0, 0.00000E+0
     3,    18,'1 ', 1.10000E-3, 1.33000E-2,    0.21380, 0.00000E+0, 0.00000E+0, 0.00000E+0, 0.00000E+0
     4,     5,'1 ', 8.00000E-4, 1.28000E-2,    0.13420, 0.00000E+0, 0.00000E+0, 0.00000E+0, 0.00000E+0
     4,    14,'1 ', 8.00000E-3, 1.29000E-2,    0.13800, 0.00000E+0, 0.00000E+0, 0.00000E+0, 0.00000E+0
     5,     6,'1 ', 2.00000E-4, 2.60000E-3,    0.04300, 0.00000E+0, 0.00000E+0, 0.00000E+0, 0.00000E+0
     5,     8,'1 ', 8.00000E-4, 1.12000E-2,    0.14760, 0.00000E+0, 0.00000E+0, 0.00000E+0, 0.00000E+0
     6,     7,'1 ', 6.00000E-4, 9.20000E-3,    0.11300, 0.00000E+0, 0.00000E+0, 0.00000E+0, 0.00000E+0
     6,    11,'1 ', 7.00000E-4, 8.20000E-3,    0.13890, 0.00000E+0, 0.00000E+0, 0.00000E+0, 0.00000E+0
     7,     8,'1 ', 4.00000E-4, 4.60000E-3,    0.07800, 0.00000E+0, 0.00000E+0, 0.00000E+0, 0.00000E+0
     8,     9,'1 ', 2.30000E-3, 3.63000E-2,    0.38040, 0.00000E+0, 0.00000E+0, 0.00000E+0, 0.00000E+0
     9,    39,'1 ', 1.00000E-3, 2.50000E-2,    1.20000, 0.00000E+0, 0.00000E+0, 0.00000E+0, 0.00000E+0
    10,    11,'1 ', 4.00000E-4, 4.30000E-3,    0.07290, 0.00000E+0, 0.00000E+0, 0.00000E+0, 0.00000E+0
    10,    13,'1 ', 4.00000E-4, 4.30000E-3,    0.07290, 0.00000E+0, 0.00000E+0, 0.00000E+0, 0.00000E+0
    13,    14,'1 ', 9.00000E-4, 1.01000E-2,    0.17230, 0.00000E+0, 0.00000E+0, 0.00000E+0, 0.00000E+0
    14,    15,'1 ', 1.80000E-3, 2.17000E-2,    0.36600, 0.00000E+0, 0.00000E+0, 0.00000E+0, 0.00000E+0
    15,    16,'1 ', 9.00000E-4, 9.40000E-4,    0.17100, 0.00000E+0, 0.00000E+0, 0.00000E+0, 0.00000E+0
    16,    17,'1 ', 7.00000E-4, 8.90000E-3,    0.13420, 0.00000E+0, 0.00000E+0, 0.00000E+0, 0.00000E+0
    16,    19,'1 ', 1.60000E-3, 1.95000E-2,    0.30400, 0.00000E+0, 0.00000E+0, 0.00000E+0, 0.00000E+0
    16,    21,'1 ', 8.00000E-4, 1.35000E-2,    0.25480, 0.00000E+0, 0.00000E+0, 0.00000E+0, 0.00000E+0
    16,    24,'1 ', 3.00000E-4, 5.90000E-3,    0.00680, 0.00000E+0, 0.00000E+0, 0.00000E+0, 0.00000E+0
    17,    18,'1 ', 7.00000E-4, 8.20000E-3,    0.13190, 0.00000E+0, 0.00000E+0, 0.00000E+0, 0.00000E+0
    17,    27,'1 ', 1.30000E-3, 1.73000E-2,    0.32160, 0.00000E+0, 0.00000E+0, 0.00000E+0, 0.00000E+0
    21,    22,'1 ', 8.00000E-4, 1.40000E-2,    0.25650, 0.00000E+0, 0.00000E+0, 0.00000E+0, 0.00000E+0
    22,    23,'1 ', 6.00000E-4, 9.60000E-3,    0.18460, 0.00000E+0, 0.00000E+0, 0.00000E+0, 0.00000E+0
    23,    24,'1 ', 2.20000E-3, 3.50000E-2,    0.36100, 0.00000E+0, 0.00000E+0, 0.00000E+0, 0.00000E+0
    25,    26,'1 ', 3.20000E-3, 3.23000E-2,    0.51300, 0.00000E+0, 0.00000E+0, 0.00000E+0, 0.00000E+0
    26,    27,'1 ', 1.40000E-3, 1.47000E-2,    0.23960, 0.00000E+0, 0.00000E+0, 0.00000E+0, 0.00000E+0
    26,    28,'1 ', 4.30000E-3, 4.70000E-2,    0.78020, 0.00000E+0, 0.00000E+0, 0.00000E+0, 0.00000E+0
    26,    29,'1 ', 5.70000E-3, 6.25000E-2,    0.78020, 0.00000E+0, 0.00000E+0, 0.00000E+0, 0.00000E+0
    28,    29,'1 ', 1.40000E-3, 1.51000E-2,    0.24900, 0.00000E+0, 0.00000E+0, 0.00000E+0, 0.00000E+0
0  / END OF ZERO SEQ. NON-TRANSFORMER BRANCH DATA, BEGIN ZERO SEQ. MUTUAL DATA
    1,  2,  '1',    2,   3, '1',     0.0005, 0.02,   0.2,    0.4,    0.3,    0.7 
    1,  2,  '1',    18,  3, '1',    0.0005, 0.008,   0.4,    0.6,    0.5,    1.0
    2,  1,  '1',    8,   9, '1',    0.00001,0.001,   0.6,    0.8,    0.0,    0.5
   11, 10,  '1',   14,  15, '1',    0.0001, 0.002,   0.5,    1.0,    0.3,    0.6
   17, 18,  '1',   21,  22, '1',    0.0002, 0.004,   0.1,    0.5,    0.5,    1.0
   26, 27,  '1',   28,  26, '1',     0.0005, 0.01,   0.2,    0.4,    0.3,    0.7 
0  / END OF ZERO SEQ. MUTUAL DATA, BEGIN ZERO SEQ. TRANSFORMER DATA
     2,    30,     0,'1 ',1,1,  33, 0.00000E+0, 0.00000E+0, 0.00000E+0, 1.81000E-2, 0.00000E+0, 0.00000E+0, 0.00000E+0, 0.00000E+0, 0.00000E+0, 0.00000E+0
     6,    31,     0,'1 ',1,1,  33, 0.00000E+0, 0.00000E+0, 0.00000E+0, 2.50000E-2, 0.00000E+0, 0.00000E+0, 0.00000E+0, 0.00000E+0, 0.00000E+0, 0.00000E+0
    10,    32,     0,'1 ',1,1,  33, 0.00000E+0, 0.00000E+0, 0.00000E+0, 2.00000E-2, 0.00000E+0, 0.00000E+0, 0.00000E+0, 0.00000E+0, 0.00000E+0, 0.00000E+0
    12,    11,     0,'1 ',1,1,  33, 0.00000E+0, 0.00000E+0, 1.60000E-3, 4.35000E-2, 0.00000E+0, 0.00000E+0, 0.00000E+0, 0.00000E+0, 0.00000E+0, 0.00000E+0
    12,    13,     0,'1 ',1,1,  33, 0.00000E+0, 0.00000E+0, 1.60000E-3, 4.35000E-2, 0.00000E+0, 0.00000E+0, 0.00000E+0, 0.00000E+0, 0.00000E+0, 0.00000E+0
    19,    20,     0,'1 ',1,1,  33, 0.00000E+0, 0.00000E+0, 7.00000E-4, 1.38000E-2, 0.00000E+0, 0.00000E+0, 0.00000E+0, 0.00000E+0, 0.00000E+0, 0.00000E+0
    19,    33,     0,'1 ',1,1,  33, 0.00000E+0, 0.00000E+0, 7.00000E-4, 1.42000E-2, 0.00000E+0, 0.00000E+0, 0.00000E+0, 0.00000E+0, 0.00000E+0, 0.00000E+0
    20,    34,     0,'1 ',1,1,  33, 0.00000E+0, 0.00000E+0, 9.00000E-4, 1.80000E-2, 0.00000E+0, 0.00000E+0, 0.00000E+0, 0.00000E+0, 0.00000E+0, 0.00000E+0
    22,    35,     0,'1 ',1,1,  33, 0.00000E+0, 0.00000E+0, 0.00000E+0, 1.43000E-2, 0.00000E+0, 0.00000E+0, 0.00000E+0, 0.00000E+0, 0.00000E+0, 0.00000E+0
    23,    36,     0,'1 ',1,1,  33, 0.00000E+0, 0.00000E+0, 5.00000E-4, 2.72000E-2, 0.00000E+0, 0.00000E+0, 0.00000E+0, 0.00000E+0, 0.00000E+0, 0.00000E+0
    25,    37,     0,'1 ',1,1,  32, 0.00000E+0, 0.00000E+0, 6.00000E-4, 2.32000E-2, 0.00000E+0, 0.00000E+0, 0.00000E+0, 0.00000E+0, 0.00000E+0, 0.00000E+0
    29,    38,     0,'1 ',1,1,  23, 0.00000E+0, 0.00000E+0, 8.00000E-4, 1.56000E-2, 0.00000E+0, 0.00000E+0, 0.00000E+0, 0.00000E+0, 0.00000E+0, 0.00000E+0
0  / END OF ZERO SEQ. TRANSFORMER DATA, BEGIN ZERO SEQ. SWITCHED SHUNT DATA
0  / END OF ZERO SEQ. SWITCHED SHUNT DATA, BEGIN ZERO SEQ. FIXED SHUNT DATA
0  / END OF ZERO SEQ. FIXED SHUNT DATA, BEGIN INDUCTION MACHINE DATA
0  / END OF INDUCTION MACHINE DATA, BEGIN NON CONVENTIONAL SOURCE FAULT CONTRIBUTION DATA
0  / END OF NON CONVENTIONAL SOURCE FAULT CONTRIBUTION DATA
Q
